test/testfiles/spacezero.raw
0,   100.00, 30, 0, 1,  60.00     / PSS(R)E 30 RAW created
   SNAPSHOT
   FULL COPY
   111,'2PAL        ',  69.0000,1,     0.000,     0.000, 327,   1,0.94744,  23.3820,   1
   112,'1PLUM       ',  23.0000,2,     0.000,     0.000, 349,  44,1.00450,  41.1715,  17
 0 /End of Bus data, Begin Load data
   111,'G1',1, 327,   1,     1.331,     0.296,     0.000,     0.000,     0.000,    -0.001,   1
